10

F 0.0096835452 0.0205348922 0.0027163429
C -0.0342052691 1.3458417693 0.0105955244
C -1.2122758645 1.9997340185 0.0298059892
O -1.2424777964 3.3476141076 0.0376836537
C -0.0648777146 4.0956335651 0.0264305847
O -0.1257331035 5.2923212669 0.0331179112
C 1.1525844370 3.2737608850 0.0053642634
N 1.1630213592 1.9817099116 -0.0018656451
H -2.1894646501 1.5361772389 0.0402012843
H 2.0940376567 3.8155014550 -0.0043804287