12

C 0.0112764457 -1.2145445565 0.0086911837
C 0.0020355902 -0.0161860170 0.0022742806
C -0.0081952597 1.4612062307 -0.0068277114
C 1.3744959503 1.9817874860 0.0000026599
C 2.4962929384 2.4033793353 0.0043860001
C -0.7360543726 1.9598483398 -1.1919268446
C -1.3255216155 2.3636467528 -2.1540379669
C -0.7062010824 1.9420817844 1.2203018034
N -1.2462567096 2.3141458445 2.1697453221
H 0.0191704725 -2.2772481143 0.0144649001
H 3.4910753141 2.7773116778 0.0081951637
H -1.8482176014 2.7217795365 -3.0072464107