10

F -0.0247423924 0.0302057511 0.0043019741
C -0.0241110807 1.3537344949 0.0111166430
C -1.1872097954 2.0345377862 0.0296984461
O -1.2739762791 3.3770318691 0.0377160496
N -0.1302416001 4.1534733313 0.0267940988
C 0.9973840147 3.5324864575 0.0089711812
C 1.2369823711 2.0710181834 -0.0014614781
O 2.3496533960 1.5786756716 -0.0186959473
H -2.1633218319 1.5645611566 0.0399401271
H 1.8688152979 4.1819291384 0.0009153757