9

F 0.0747986684 0.0444502601 -0.2552654413
C -0.0286974514 1.3297113048 -0.0171148787
N -1.2224189270 1.7941525723 0.0605494476
O -1.3094196913 3.1600192204 0.3142566542
C -0.1951309930 3.9543334389 0.4706045484
O -0.3192329918 5.1259987478 0.6874690761
C 1.0884329535 3.2361352663 0.3462767842
N 1.1756733805 1.9771156907 0.1124872350
H 1.9925124920 3.8293829987 0.4634015146