19

C -0.0000099614 1.6064730532 -0.0285666760
C -0.0087586515 0.0767621839 0.0183258830
C 0.6778968961 -0.5558367274 -1.1919555251
C 0.6848766986 -2.0801587968 -1.1765541195
O 0.1793754781 -2.7140310957 -0.2775914954
C 1.3649751321 -2.7638942863 -2.3581181829
C 1.3309625068 -4.2884318090 -2.2853894535
H 1.0224689437 2.0004567368 -0.0529731820
H -0.5182477297 1.9826878403 -0.9180489900
H -0.4975201242 2.0310287211 0.8487877741
H 0.4829469408 -0.2761398443 0.9311547084
H -1.0376791084 -0.2937748997 0.0774695856
H 0.2008023017 -0.2291974478 -2.1276703988
H 1.7195036207 -0.2125746548 -1.2753496238
H 0.8872392671 -2.3997980448 -3.2783172565
H 2.3979100395 -2.3926038003 -2.4116851629
H 1.8262503741 -4.6465085290 -1.3793624355
H 0.3015808427 -4.6545562936 -2.2565792183
H 1.8317967531 -4.7288549560 -3.1521317809