14

O -0.0852250834 1.3371233771 0.1381493809
N 0.0634284318 -0.0698999474 0.1336965825
C -1.0897125818 -0.6391304334 -0.0200850438
C -2.3848913188 0.0085664650 -0.1717057704
C -3.5173620888 -0.7125326542 -0.3254054116
N -3.5020138661 -2.0822512692 -0.3460174248
C -2.3079548728 -2.7648502407 -0.2075635651
C -1.1522065390 -2.0899563070 -0.0517039363
F -0.0145711313 -2.7694623746 0.0796683990
H 0.8241571158 1.6272364758 0.2568075424
H -2.4247906339 1.0869974397 -0.1590183813
H -4.4920439775 -0.2543756857 -0.4399826962
H -4.3558749301 -2.5977941412 -0.4611361048
H -2.3410770441 -3.8449449644 -0.2294350905