14

C 0.0081777059 -1.2509780453 -0.1022413322
C 0.0231678045 -0.0516431459 -0.0183543304
C 0.0227827598 1.3949189747 0.0725594800
C -0.2194985441 2.0859584455 1.4783463054
C 1.1121329919 2.8195535536 1.2978092016
N 2.1447329214 1.7603273789 1.2002573929
C 1.3716819453 2.1424262126 -0.0000005612
H 0.0093288604 -2.3105156471 -0.1685171749
H -0.6731639489 1.8162124292 -0.6595532577
H -1.0958958216 2.7361321792 1.4647091518
H -0.2622527664 1.4114693751 2.3348104871
H 1.3683953367 3.8197031425 1.6234870954
H 3.0502109723 2.2236853012 1.1272760234
H 1.8670408728 2.4905584957 -0.8978965611