12

F 0.1207203892 0.0774358934 0.0017699264
C -0.0564009244 1.3786912828 0.0111196313
C -1.2584090843 1.9771712622 0.0307390777
C -1.2490163252 3.4143539091 0.0382769959
C -0.0880539803 4.1053923088 0.0260998113
C 1.1894878509 3.4280150162 0.0050285206
N 2.3233200679 3.9897484645 -0.0074587382
O 1.1125956824 2.0074021837 -0.0014961378
H -2.1633579191 1.3890964391 0.0399713883
H -2.1968373624 3.9410694440 0.0540402411
H -0.0476145588 5.1859423299 0.0313137813
H 3.0798190739 3.3070367363 -0.0214357480