13

C -0.0597412369 1.5318793530 0.0111266570
C 0.1084556906 0.0250103819 0.0012496189
O 1.1886063418 -0.5096584173 -0.0122203244
C -1.1989743928 -0.7726422800 0.0093640651
C -1.0201108845 -2.2796397181 -0.0005244630
F -0.3534691947 -2.7118843072 1.0739205449
F -2.2259777075 -2.8802807351 0.0077606039
F -0.3741953425 -2.7001484631 -1.0921420812
H 0.9201290640 2.0098750607 0.0044686449
H -0.6360372305 1.8585865059 -0.8618887174
H -0.6194107404 1.8489457517 0.8983918196
H -1.7861875501 -0.5031182073 0.8938313269
H -1.8028522864 -0.4935855150 -0.8608150852