13

C -0.0298217946 1.5326602144 0.0166654169
C -0.0072293947 0.0319162414 -0.0116737670
C -0.0406812432 -0.7291189519 -1.1748909100
N -0.0203493554 -2.0677769767 -1.1916545478
C 0.0353981003 -2.6575353787 -0.0030140342
N 0.0724004811 -2.0493839378 1.1886475143
C 0.0502748225 -0.7396003690 1.1517760973
F 0.0862734053 -0.1100582193 2.3209679112
H 0.8611337448 1.9331083949 0.5110417242
H -0.0714211196 1.9379932949 -0.9972818442
H -0.8966551420 1.9055115932 0.5718736408
H -0.0861189330 -0.2318636319 -2.1421527565
H 0.0529031983 -3.7438500935 0.0106496950