15

C -0.0072957548 1.5592680354 0.0700536729
C -0.0515678263 0.0293093145 -0.0131573339
C -1.4856885816 -0.5114253401 0.0112505797
O -2.0480055941 -0.1453566399 1.2608568866
C 0.6770907235 -0.4747865131 -1.2482727937
F 1.9433761704 -0.0332620346 -1.2902533350
F 0.7252690042 -1.8184758125 -1.2853919639
F 0.0760058200 -0.0711981466 -2.3832649408
H 1.0209234116 1.9203512854 0.1425299781
H -0.4666068693 2.0079455975 -0.8163185988
H -0.5618034701 1.8878657060 0.9500482948
H 0.4784331629 -0.4002840862 0.8446551043
H -2.0515633901 -0.0811886742 -0.8286187877
H -1.4703281736 -1.6026506726 -0.1169122824
H -2.9643093628 -0.4357540690 1.2742797497