15

C -0.0277334135 1.5283569650 0.0287504022
C -0.0060028322 0.0234235163 -0.0143068698
C -0.0354655196 -0.7022717428 -1.2063422497
C -0.0141823063 -2.0958718698 -1.2118605825
C 0.0375984543 -2.7946272113 -0.0093370696
C 0.0679972299 -2.0979756117 1.1969983313
C 0.0456931142 -0.7132103308 1.1689911055
F 0.0749717471 -0.0407059236 2.3308569299
H 0.8618843070 1.9261345238 0.5287114079
H -0.0683086567 1.9459956290 -0.9799619816
H -0.8933517497 1.8990935746 0.5881018872
H -0.0758648781 -0.1588547999 -2.1456180833
H -0.0380300828 -2.6325245706 -2.1538589106
H 0.0545159064 -3.8789832989 -0.0034037392
H 0.1084491300 -2.6062836691 2.1533247623