15

C -0.1127994609 1.4975354538 0.1872746992
C 0.0332887418 -0.0030544556 0.0253226583
C 1.3683662309 -0.5939044334 -0.3567746255
C 0.8260700587 -0.7969768786 1.0346462776
C -1.1900771770 -0.6659541349 -0.5480902472
F -1.4926737142 -0.1744862205 -1.7632809664
F -1.0408106963 -1.9954296374 -0.6841946679
F -2.2691175303 -0.4657439061 0.2299878883
H 0.8026761039 1.9220736404 0.6069237474
H -0.3022469884 1.9790612059 -0.7766632652
H -0.9413471363 1.7402537212 0.8592377551
H 1.3784973978 -1.4484720894 -1.0221888011
H 2.1884723586 0.1008917456 -0.4990426747
H 1.2718983313 -0.2423752720 1.8526962416
H 0.4743139104 -1.7870584089 1.2976616306