13

C 0.0133507793 1.5040546487 0.0069896260
C 0.0000016733 0.0133769095 -0.0262146453
C -0.0782109010 -0.8319277405 -1.0873479499
O -0.0566445750 -2.1143654586 -0.6279941804
C 0.0359071051 -1.9841840524 0.7247487779
N 0.0727384938 -0.7476014280 1.1310079270
C 0.0795842133 -3.1626922910 1.4985512314
C 0.1166200722 -4.1699132639 2.1545830760
H 0.9306757954 1.8741499100 0.4760326155
H -0.0509630084 1.9205241896 -1.0013502077
H -0.8278007938 1.8872772656 0.5935661695
H -0.1495174189 -0.7053544633 -2.1541679617
H 0.1496713549 -5.0559914656 2.7397186319