11

C 0.0264768190 1.5596582620 0.0100629990
C 0.0018146039 0.0305972303 0.0022153136
C -1.4050163534 -0.5278456694 0.0126765133
F -2.1087975527 -0.1263131756 -1.0597629687
F -1.3981723647 -1.8710951698 0.0055014740
F -2.0881854095 -0.1377576026 1.1025178974
H 1.0569566856 1.9229634857 0.0021935889
H -0.4848221487 1.9625085472 -0.8681539503
H -0.4679990757 1.9531463104 0.9020506439
H 0.4989068156 -0.3700312509 -0.8864739990
H 0.5157242205 -0.3793494172 0.8769803477