13

O 0.3282469507 0.7499739950 0.8126356905
C -0.1343875048 0.3144193601 -0.4461656390
C -1.4915076019 -0.4119767071 -0.3900268087
O -2.0907088472 -0.5094491620 -1.6631106747
C -1.3730362333 -1.8148854821 0.2100474522
F -0.7066146998 -1.8065640791 1.3851003563
F -2.5600015953 -2.3761409001 0.4267842571
F -0.6868494168 -2.6191791110 -0.6270289058
H 0.4872972214 -0.0279447605 1.3562243029
H -0.2836480728 1.2081784828 -1.0574922719
H 0.6000685971 -0.3245972206 -0.9634315008
H -2.1734228123 0.1623284436 0.2437521195
H -1.5424117249 -1.0888978288 -2.2057079176