15

C -0.0139108199 1.5867498771 0.0589732808
C -0.0283264757 0.0580803793 -0.0031189502
C 0.7212508568 -0.4775973346 -1.2286543847
O 2.0726522822 -0.0673378633 -1.2790808141
C 0.6622594077 -2.0055102199 -1.3049750116
F -0.5974173777 -2.4596272061 -1.2332936720
F 1.1984077791 -2.4684181798 -2.4364013076
F 1.3517697456 -2.5497065634 -0.2797829889
H 1.0111218179 1.9656073239 0.0515725344
H -0.5358373417 2.0209239055 -0.8006676044
H -0.5084116378 1.9441088593 0.9663567984
H 0.4341932155 -0.3648057011 0.8982503623
H -1.0565939947 -0.3167456281 -0.0283737477
H 0.2592805747 -0.0990043566 -2.1472414937
H 2.5225558181 -0.4547360121 -0.5184933613