14

O -0.0570780907 1.2853833046 -0.2344225803
N 0.0172135870 -0.0771972629 -0.0212952902
C -1.1205537766 -0.6447360227 0.1068416657
C -1.2492805274 -2.1414895139 0.3048347879
N -2.6184151865 -2.4783998018 -0.1376818872
C -3.4394145331 -1.3053702729 0.1944044636
C -2.5197140279 -0.0773317874 0.0831207321
O -2.8587149949 1.0751506351 -0.0000078349
H 0.8720661220 1.5320057180 -0.3138751102
H -0.4998017551 -2.7102566812 -0.2478484454
H -1.1446265039 -2.4005483869 1.3675919252
H -2.6076373125 -2.5840877412 -1.1477113550
H -4.3130530195 -1.2104530662 -0.4534908367
H -3.8023353810 -1.3794440305 1.2297948255