11

F 0.0419858360 0.0427109565 -0.2989374941
C -0.0391126768 1.3389559913 -0.0249102323
C -1.2270667006 1.9445661241 0.1145499829
O -1.2954537787 3.2747283695 0.3956039772
C -0.1303030207 4.0108916540 0.5392073742
N -0.1341618861 5.2514035596 0.8006488287
C 1.1086705331 3.2482937695 0.3660916339
N 1.1568382001 1.9896792032 0.1003380809
H -2.1941353475 1.4711579323 0.0243819481
H -1.0848621216 5.6123604879 0.8861822007
H 2.0323240530 3.8095186721 0.4751688100