10

F 0.0860047019 0.0663966046 0.0023956801
C -0.0626474183 1.3666840486 0.0111954532
C -1.2586039055 1.9958509665 0.0306417025
N -1.2945049468 3.3654201273 0.0381410078
C -0.1860542954 4.0302800026 0.0266712231
C 1.1439992173 3.4254286260 0.0062452887
O 2.2145039652 3.9502702462 -0.0065252524
O 1.0968126674 1.9961037316 -0.0009970485
H -2.1880502736 1.4449403987 0.0402695209
H -0.2110424722 5.1156410481 0.0322294746