12

O 0.0881106889 1.3669793101 -0.0636547502
C 0.0574955086 0.0179152727 -0.0506227330
C 0.0212199289 -0.7171148651 -1.2314823778
C -0.0090721582 -2.1055629359 -1.1445765912
N -0.0058692146 -2.7927901264 0.0015636495
C 0.0289896332 -2.0848345430 1.1344289296
C 0.0606925048 -0.7040952635 1.1434611874
F 0.0956714093 -0.0048177938 2.2946178745
H 0.1102638392 1.6760503859 0.8513405051
H 0.0171746836 -0.2049794276 -2.1862498781
H -0.0376343916 -2.6977839482 -2.0554666937
H 0.0321907878 -2.6258511553 2.0772199078