10

F 0.0641858996 0.0573260578 0.0030800887
C -0.0557926099 1.3600374379 0.0107423312
C -1.2622330173 1.9894779839 0.0308394093
C -1.1814657804 3.3996034821 0.0368143967
N -0.0802280013 4.1072205675 0.0250315403
C 1.1265873595 3.4888484002 0.0053215728
O 2.2244960184 3.9312494030 -0.0080438417
O 1.0824092732 1.9737686891 -0.0016741662
H -2.1920706709 1.4434168459 0.0411354505
H -2.1071977110 3.9730230527 0.0524926083