12

O 0.1032133090 1.3474738960 0.1031920869
C 0.0721718314 0.0025911150 0.0446712071
N 0.0890204992 -0.5877630484 -1.1377929873
C 0.0578492619 -1.9275946266 -1.1861798593
C 0.0087323531 -2.7259321191 -0.0554804843
C -0.0090712089 -2.1004305126 1.1957246912
C 0.0229596140 -0.7245650556 1.2447506508
F 0.0081478718 -0.0725916345 2.4067673791
H 0.1347397120 1.6499647043 -0.8153002762
H 0.0733705240 -2.3667795546 -2.1793651804
H -0.0152257015 -3.8054798863 -0.1386157929
H -0.0470808010 -2.6633531576 2.1213910755