13

N 0.0161003950 1.3657616526 0.1638186148
C -0.0155265644 -0.0074306544 0.0629522701
C -1.2262928798 -0.7203393711 0.0411509294
C -1.1687121994 -2.1041594348 -0.0081847693
C 0.0633213843 -2.7546038053 -0.0323740892
C 1.1822719071 -1.9335917278 -0.0084812021
F 2.3875733573 -2.5004118904 -0.0357952009
N 1.1773011529 -0.6206890594 0.0329832019
H 0.9040214139 1.7817328475 -0.0720655939
H -0.7911805755 1.8729950933 -0.1602030411
H -2.1739095912 -0.1951170356 0.0687043595
H -2.0863343507 -2.6829828930 -0.0272293001
H 0.1640315805 -3.8304153617 -0.0711486991