18

C 0.0331175300 -1.1927813894 -0.0045540613
C 0.0435650908 0.0076540097 0.0018616804
C 0.0201016113 1.4635584581 0.0096850863
O 1.3426966448 1.9687426563 0.0000062198
C 1.3845969770 3.3776182162 0.0069081450
C 2.8475247308 3.8018857211 -0.0045161640
C 2.9883200090 5.3356610546 0.0021345282
C 4.3833019807 5.7695732082 -0.0085707615
N 5.4901656414 6.1007460586 -0.0173264109
H 0.0314864901 -2.2548521919 -0.0105216511
H -0.5384517625 1.8316229994 -0.8680446237
H -0.5219626328 1.8223492103 0.9014783846
H 0.8572546774 3.7862314491 -0.8734277826
H 0.8737786692 3.7770447636 0.9010951221
H 3.3522469557 3.3775571612 0.8683168517
H 3.3358624429 3.3866792812 -0.8909515093
H 2.4856763452 5.7702810393 -0.8702012228
H 2.5020609189 5.7611564043 0.8881411589