12

F -0.0227837499 0.0284808412 0.0043068191
C -0.0288194058 1.3576876336 0.0111008239
C -1.2124972989 2.0120590204 0.0299522056
N -1.2419134211 3.3847397782 0.0372171067
C -0.0840099463 4.1073228379 0.0256539844
C 1.1261834615 3.4963774775 0.0066712394
C 1.2719877768 2.0423841564 -0.0025626187
O 2.3398728502 1.4440136621 -0.0196114278
H -2.1618255921 1.4930778010 0.0398115486
H -2.1294868683 3.8569502151 0.0513559587
H -0.2048868813 5.1838149647 0.0326568715
H 2.0331603950 4.0878709820 -0.0022770012