9

F 0.0236098518 0.0761137846 0.1653090250
C -0.0186790519 1.3804606363 0.0458823631
C -1.1740308345 2.0601194289 -0.0407314849
N -1.1728619018 3.4420881297 -0.1662051282
N -0.1494885193 4.1220668644 -0.2059009369
O 1.1385261775 3.4398228639 -0.1162021500
C 1.2730337630 2.0795832198 0.0101677710
O 2.3517702452 1.5657977229 0.0802051036
H -2.1455337900 1.5840429396 -0.0183988326