11

O 0.0952245536 1.3331751618 0.0901252545
C 0.0714120323 -0.0044118765 0.0641820791
N 0.0797816066 -0.6021585306 -1.1289946684
C 0.0554633117 -1.9329747343 -1.1130491562
N 0.0238815012 -2.7234638788 -0.0416151985
C 0.0167960677 -2.0865290912 1.1162936594
F -0.0143558019 -2.8448848644 2.1994395122
C 0.0392986844 -0.7117886796 1.2656082661
H 0.1153375296 1.6238684743 -0.8333529283
H 0.0619684274 -2.4282126366 -2.0803428657
H 0.0326096756 -0.2249390338 2.2302180055