10

F 0.0119193836 0.0576831965 0.0029502557
C -0.0238333257 1.3768028931 0.0107184675
C -1.2559896438 2.0146926255 0.0312128317
C -1.1678645617 3.3995112598 0.0376669284
F -2.2798973032 4.1097414185 0.0569051412
N -0.0355419850 4.0758716360 0.0258584637
C 1.0691744283 3.3301186656 0.0065796758
N 1.1391391591 1.9989703187 -0.0018009078
H -2.1964494832 1.4826424029 0.0412006789
H 2.0145769015 3.8649650433 -0.0035365050