11

F 0.0186415825 0.0647832698 0.0037293968
C -0.0168030430 1.3899280158 0.0108346894
N -1.1792364079 1.9400218392 0.0293945819
C -1.2745466177 3.3210230076 0.0377033151
O -2.3026504383 3.9540449613 0.0548570191
N -0.0297208121 4.0133897737 0.0243488561
C 1.1748693118 3.4035192209 0.0049513381
C 1.2450447368 2.0453582533 -0.0028854718
H -0.1069647836 5.0202626450 0.0305075199
H 2.0476764413 4.0457539473 -0.0036019584
H 2.1763826002 1.5011717362 -0.0182347162