15

C 0.0043131421 1.3770667975 0.0076286634
O -0.0387480398 -0.0505786930 0.0030827908
C -1.2491535504 -0.6105807864 0.0105410781
N -2.3324572003 0.0951927767 0.0215274882
C -3.5451948248 -0.5533417085 0.0287460197
C -3.6334718749 -1.9021186029 0.0246261669
N -2.4728646002 -2.6398380375 0.0129772047
C -1.1944434030 -2.0985404653 0.0050283425
O -0.1915839372 -2.7829564286 -0.0054040076
H 1.0630699453 1.6361940309 -0.0000079826
H -0.4985046454 1.7835153466 -0.8745273515
H -0.4841794504 1.7774314854 0.9005564501
H -4.4309563900 0.0685095177 0.0378585505
H -4.5648047004 -2.4521885446 0.0299067745
H -2.5027423206 -3.6500285479 0.0096192124