10

F 0.0582092346 0.0722742560 0.0021969544
C -0.0520212637 1.3854550045 0.0113620530
N -1.2006288320 1.9157791613 0.0294583630
C -1.2577017337 3.3019666935 0.0380971042
N -2.3440613622 3.9358799704 0.0561312621
O -0.0329336567 4.0244263823 0.0261532452
N 1.1901157180 3.4088673048 0.0065428503
C 1.1935456358 2.1246284415 -0.0008756298
H -2.1787606360 4.9419799339 0.0597617648
H 2.1587579459 1.6330707216 -0.0164466673