11

F -0.0017582165 0.0276105810 0.0031815852
C -0.0213983377 1.3557409098 0.0107490660
C -1.2374865951 2.0161913422 0.0308628549
C -1.1692564413 3.4069652291 0.0374923433
F -2.3123086347 4.0829431315 0.0569711475
N -0.0692701678 4.1244917664 0.0266030565
C 1.0866082814 3.4483329405 0.0072290875
C 1.1763000088 2.0634130164 -0.0016365386
H -2.1804467418 1.4869361784 0.0408027699
H 1.9897883016 4.0517061972 -0.0016926452
H 2.1272574532 1.5474887174 -0.0173834169