18

C 0.0803859928 1.5395294650 -0.1419156725
C 0.0224978734 0.0092528230 -0.1701034760
C -1.3764966117 -0.5273195342 0.1182076110
C -2.3833521279 -0.4345094375 -1.0627875138
N -2.1107974576 -1.8561807911 -1.3781958411
C -1.5573117214 -2.0784073925 -0.0277978259
C -0.3724549974 -2.9366729490 0.0346867757
N 0.5645745736 -3.6096111857 0.1071304710
H 1.0908295162 1.8963506770 -0.3610450556
H -0.5942279743 1.9825313424 -0.8825728434
H -0.2050809317 1.9288897483 0.8417149895
H 0.3565848783 -0.3628560596 -1.1457634604
H 0.7212233854 -0.3995084893 0.5695112362
H -1.7446538135 -0.1382452408 1.0703299717
H -3.4091019641 -0.2284536127 -0.7282565440
H -2.1323709871 0.2551285949 -1.8754217550
H -2.9101399199 -2.4309089078 -1.6199405172
H -2.2836102832 -2.4569116305 0.7060429098