18

O -0.0893450203 1.3156543164 -0.0214351177
N 0.0176941211 -0.0898252962 -0.0545041586
C -1.1254598594 -0.6443026327 0.0380838617
C -2.4805253906 -0.0000019984 0.2308073774
C -3.3268175524 -1.0845749215 0.9522080193
O -4.6854669179 -1.1209185444 0.5436207332
C -2.6546675896 -2.4104383145 0.6317445052
C -2.3657211156 -2.6933286210 -0.8111027128
C -1.2702754559 -2.1200445662 0.0724586137
H 0.8342582956 1.5859754811 -0.0503959150
H -2.3989835506 0.9359589892 0.7866893007
H -2.9399002560 0.2353232060 -0.7365965401
H -3.2631822796 -0.9223260479 2.0391008637
H -5.1059109681 -0.3047501797 0.8327713097
H -2.8214336018 -3.2418770907 1.3059367458
H -2.2516549160 -3.7328282529 -1.0963909965
H -2.8131727179 -2.0676411769 -1.5748378392
H -0.4022127150 -2.7246506496 0.3006663398