9

F 0.0433172966 0.0745505722 -0.0655748712
C -0.0210966380 1.3927704774 0.0172695313
F 1.2201575252 1.8925863937 0.0103294011
F -0.6667592625 1.8673109875 -1.0543652171
C -0.7577180029 1.8323563444 1.3125192535
O -1.1844441272 1.0178310510 2.0890021562
C -0.8678979970 3.2601661321 1.4730340788
C -0.9609067081 4.4518499380 1.6088321729
H -1.0441501061 5.5053347238 1.7307495046