12

C -0.0125259642 1.4768613521 0.0207802517
C -0.0083393979 -0.0224191123 0.0012405673
N 0.1399608771 -0.6332663717 -1.1939116401
C 0.1389103669 -1.9499868505 -1.1732780820
C -0.0112094543 -2.6128355419 0.0489719758
F -0.0142037892 -3.9347240416 0.0849614747
N -0.1526865035 -1.9846420767 1.1876832584
N -0.1521332970 -0.6493759801 1.1703261456
H 0.9249820062 1.8628464477 -0.3912103228
H -0.8215353776 1.8608355906 -0.6082586205
H -0.1396674020 1.8387072846 1.0408493264
H 0.2546673555 -2.4972212601 -2.1054262245