13

N -0.0143918233 1.3422664394 0.0973156565
C -0.0058800462 -0.0138013260 0.0335018763
N -1.1518605857 -0.6353642397 0.0216429738
C -1.1971682702 -1.9977380377 -0.0000068571
N -2.2645393948 -2.6774072178 0.0000494887
O 0.0510929436 -2.7190221228 -0.0319962700
C 1.1999026383 -2.0443363865 -0.0235842496
C 1.2668995622 -0.7038697105 0.0104645383
H 0.8171330711 1.8677433962 -0.1059082712
H -0.9056126713 1.7991786213 -0.0127752320
H -2.0483357305 -3.6722781589 -0.0224378480
H 2.0635548263 -2.7012462200 -0.0466474882
H 2.2155769702 -0.1859372370 0.0247522526