14

O -0.0219487112 -0.0307965538 -0.0020468937
C 0.0002446356 1.1817700536 0.0071703378
C 1.2280668376 1.9780893616 0.0000023884
C 2.4982650977 1.4354491137 -0.0180825425
N 3.3937699086 2.4656953979 -0.0199069728
C 2.7439819973 3.6660459042 -0.0034459641
C 1.3861024050 3.4127035069 0.0096389738
C 0.3610509527 4.4570283365 0.0292076398
O 0.6033456767 5.6453646878 0.0361428119
H -0.9456809524 1.7635147603 0.0219416733
H 2.8086688680 0.4038270626 -0.0295240769
H 4.3946976103 2.3555123445 -0.0318002066
H 3.2715020006 4.6054317766 -0.0019425443
H -0.6888459866 4.0950020376 0.0377962559