17

C 0.4363981996 1.2693217014 -0.3192730823
C 0.1008735781 -0.2049804307 -0.0506184040
C 0.8367274307 -0.7095532055 1.1985501872
C -1.4103246414 -0.4608116393 0.1053211232
C -2.2294002943 -0.3041721873 -1.1603066617
F -1.7307290277 -1.0376302486 -2.1708873140
F -3.4959268720 -0.7083252745 -0.9629824540
F -2.2902499838 0.9692371093 -1.5902297015
H 1.5193601871 1.4020052920 -0.4070480409
H -0.0252042426 1.6367342612 -1.2372968970
H 0.0909759457 1.9036460809 0.5060253641
H 0.4423982220 -0.7978182363 -0.9081368035
H 0.5138067666 -0.1635256881 2.0930140937
H 0.6526931481 -1.7748873306 1.3724004486
H 1.9168893031 -0.5668995375 1.0962841438
H -1.5802762886 -1.4873950931 0.4460078019
H -1.8451081006 0.2054265266 0.8587694862