14

F 0.2301775879 0.1415002545 -0.0608478284
C -0.0310625150 1.4427795463 0.0823382613
F 1.1441741553 2.0851026269 0.1831793067
F -0.6280482415 1.8680838776 -1.0442074870
C -0.9272170821 1.7235163971 1.2792624533
N -0.2957628837 1.2801544124 2.5045936273
C 0.5647650184 2.2507009320 3.1775991329
C -0.7710507810 1.9069426915 3.7351288542
H -1.1639512962 2.8011744531 1.2601938019
H -1.8582956320 1.1688397451 1.1264546002
H 1.4698444558 1.8438503060 3.6172715752
H 0.6805495602 3.2308271180 2.7201420558
H -1.5532130286 2.6602600181 3.6555770354
H -0.8625468376 1.2446087016 4.5905352912