15

C 0.0029426873 1.4964923793 0.0140786559
C 0.0060882558 -0.0076621380 0.0095436121
N 0.1081856247 -0.6203115202 -1.1783832856
C 0.1044961574 -1.9470931939 -1.1832337761
C -0.0000081369 -2.7138342750 -0.0158398552
N -0.0681335036 -4.1033253336 -0.0372112762
C -0.0929664143 -1.9704949327 1.1642345143
N -0.0910327623 -0.6403639074 1.1841772039
H 0.9052726658 1.8845184814 -0.4691338206
H -0.8514016251 1.8803585828 -0.5533531054
H -0.0496079662 1.8697845618 1.0372420733
H 0.1883086724 -2.4369133168 -2.1537646374
H 0.3598899014 -4.5387646566 -0.8418263161
H 0.2132048914 -4.5570534486 0.8202221801
H -0.1716269178 -2.4760025126 2.1268536029