15

O -0.0427913494 1.4537489948 0.0102836198
C 0.0425411344 0.0389058989 0.0018157980
C -1.3796916576 -0.5058188111 0.0125008177
C -1.4141428953 -2.0356920501 0.0045386114
C -2.8240562336 -2.5869554233 0.0149921602
F -3.5254533956 -2.1834501793 -1.0575796221
F -2.8207514593 -3.9300414422 0.0077113828
F -3.5048585566 -2.1951228179 1.1050205331
H 0.8497609551 1.8115106166 0.0037866419
H 0.5749695375 -0.3257041384 -0.8923954852
H 0.5919707164 -0.3352983642 0.8816628465
H -1.8971173075 -0.1264923554 0.8993728876
H -1.9139885826 -0.1169599778 -0.8601251783
H -0.9189892570 -2.4393801163 -0.8849286788
H -0.9021582589 -2.4489481143 0.8799719555