16

C -0.0785408949 1.4687434040 -0.0099673618
N 0.1091236451 0.0253486226 -0.0066322065
C 0.7010544676 -0.5249920118 1.2037878373
C -0.2158239538 -0.5651470017 2.4376778207
C 1.2110931960 -1.9275811201 0.8690524718
F 2.1446138512 -1.9124302854 -0.0838261938
F 1.7479417299 -2.5221413890 1.9489661645
F 0.2036792281 -2.7134169624 0.4403467772
H 0.8969205280 1.9620291038 0.0659302044
H -0.5246401884 1.7668851841 -0.9629003937
H -0.7170943842 1.8626267677 0.7989404754
H -0.7634500154 -0.4511868198 -0.2064054007
H 1.5959493515 0.0664988060 1.4315578274
H 0.3118644234 -0.9454432232 3.3155849760
H -0.5815945176 0.4385317014 2.6669677977
H -1.0781970564 -1.2127038263 2.2497732543