12

F 0.0231275838 0.0164807899 0.0032790658
C -0.0215024524 1.3486134916 0.0108876021
C -1.2349724845 2.0160021464 0.0302789646
C -1.2498644671 3.4102256084 0.0378362660
C -0.0543920584 4.1233649403 0.0259695897
C 1.1651665270 3.4477657175 0.0064562458
C 1.1757279750 2.0628011562 -0.0009969918
F 2.3265275582 1.3905356396 -0.0195950785
H -2.1492226007 1.4345277795 0.0391624597
H -2.1985124828 3.9339092175 0.0530093179
H -0.0643573040 5.2070038135 0.0318208226
H 2.1111712158 3.9759974995 -0.0031209739