11

F -0.0028717722 0.0569315268 0.0042475849
C -0.0508037791 1.3757647131 0.0113441095
N -1.1888610347 1.9569948085 0.0292845236
C -1.2211491629 3.3316577208 0.0367550491
C -0.0818340493 4.0636822949 0.0255046114
N 1.1251091703 3.4150694280 0.0064058340
C 1.2748906619 2.0290789167 -0.0025503926
O 2.3556400025 1.4787111489 -0.0196320514
H -2.1961860839 3.7992966518 0.0519207642
H -0.0577177330 5.1453767006 0.0306675165
H 1.9922373503 3.9352594699 -0.0022952291