11

F 0.0526425430 0.0624550270 0.0025221854
C -0.0670378101 1.3673249589 0.0110477517
C -1.2403046760 2.0118602014 0.0305708841
C -1.2156882324 3.4586400277 0.0379099028
N -2.2789043038 4.1781589933 0.0562343216
C 0.1621081873 3.9843999097 0.0217978983
N 1.2600799670 3.3229001129 0.0032408278
O 1.1520940141 1.9214622220 -0.0027274550
H -2.1716535122 1.4641423396 0.0404523494
H -2.0438468493 5.1727015488 0.0582468918
H 0.3164946923 5.0619748987 0.0253863120