11

O 0.0879835557 1.3219751877 0.0991219308
C 0.0679017656 -0.0225118886 0.0675018145
N 0.1019874793 -0.6017105043 -1.1221570971
N 0.0840451870 -1.9353306232 -1.2114232631
C 0.0327762042 -2.6375316700 -0.1095485818
F 0.0174589559 -3.9575671453 -0.2554870643
C -0.0057364378 -2.1022225283 1.1851682613
C 0.0125179563 -0.7335355414 1.2796770231
H 0.1261780275 1.6137455171 -0.8241034420
H -0.0474372448 -2.7525908259 2.0501602777
H -0.0135528889 -0.2075520279 2.2258487009