13

F 0.1369693183 0.1119520630 -0.1416397561
C -0.0180537446 1.4372586698 0.0001804378
F 1.2102646141 1.9812673718 0.0383869381
F -0.6268103239 1.8942023545 -1.1029876775
C -0.8149887718 1.7778890884 1.2436164187
C -0.1443560370 1.2620142278 2.5247216879
C -0.8360902130 1.7834433837 3.7664724214
O -1.2284868740 1.0979464781 4.6724864956
H -0.9232994025 2.8672690782 1.2682118274
H -1.8136547828 1.3486430058 1.1216600541
H -0.1252648052 0.1707347635 2.5578936841
H 0.8918684841 1.6260632468 2.5489638022
H -0.9573151918 2.8925193086 3.7899629663