13

O -0.0272253481 1.3700282923 -0.1937114554
N 0.0572100053 -0.0248574578 -0.0932128675
C -1.0872869746 -0.6102872226 0.0548187269
C -1.1085193752 -2.0575132965 0.1682916353
C -2.2749415302 -2.7152671211 0.3226440943
N -3.4567518493 -2.0307265047 0.3753633497
N -3.5353378192 -0.6865312816 0.2791036437
C -2.4396755252 -0.0347635921 0.1314169275
F -2.5798010496 1.2766420036 0.0436837427
H 0.8993723778 1.6102786796 -0.2956309867
H -0.1680875089 -2.5893524127 0.1257983473
H -2.3526535253 -3.7913866068 0.4126239905
H -4.3429929875 -2.4897339996 0.4886180517