11

F -0.0207689461 0.0279219624 0.0044918044
C -0.0389221802 1.3533676957 0.0110901593
C -1.2025009119 2.0497897656 0.0296825846
N -1.2639916649 3.4229978195 0.0371068756
C -0.1289560518 4.0427376815 0.0252549479
N 1.0784373940 3.4172401209 0.0064198946
C 1.2560586766 2.0181880911 -0.0027204852
O 2.3561318366 1.5093508132 -0.0194726932
H -2.1489998158 1.5180882607 0.0395207557
H -0.1011705093 5.1287952313 0.0301541396
H 1.9359674327 3.9555492979 -0.0021752433